Version 4
SHEET 1 1004 680
WIRE 144 -48 48 -48
WIRE 336 -48 224 -48
WIRE 48 80 48 -48
WIRE 80 80 48 80
WIRE 336 80 336 -48
WIRE 336 80 288 80
WIRE -208 112 -416 112
WIRE 0 112 -208 112
WIRE 80 112 0 112
WIRE 496 112 288 112
WIRE 688 112 496 112
WIRE 784 112 688 112
WIRE 944 112 784 112
WIRE -208 144 -208 112
WIRE 0 144 0 112
WIRE 80 144 0 144
WIRE 432 144 288 144
WIRE 688 144 688 112
WIRE 944 144 944 112
WIRE -64 176 -96 176
WIRE 80 176 0 176
WIRE 384 176 288 176
WIRE 432 192 432 144
WIRE 496 192 432 192
WIRE 576 192 496 192
WIRE 80 208 32 208
WIRE 352 208 288 208
WIRE -208 240 -208 208
WIRE -96 240 -96 176
WIRE 32 240 32 208
WIRE 352 240 352 208
WIRE 352 240 288 240
WIRE -416 256 -416 192
WIRE 352 272 352 240
WIRE 496 288 496 272
WIRE 576 288 576 256
WIRE 944 304 944 224
WIRE 384 320 384 176
WIRE 688 320 688 224
WIRE 688 320 384 320
FLAG -416 256 0
FLAG -96 240 0
FLAG 32 240 0
FLAG 352 272 0
FLAG -208 240 0
FLAG 496 288 0
FLAG 576 288 0
FLAG 784 176 0
FLAG 944 304 0
SYMBOL AutoGenerated\\TPS63060_TRANS 176 160 R0
SYMATTR InstName U1
SYMBOL voltage -416 96 R0
WINDOW 123 0 0 Left 0
WINDOW 39 0 0 Left 0
SYMATTR InstName V1
SYMATTR Value 6.1
SYMBOL cap -224 144 R0
SYMATTR InstName C1
SYMATTR Value 22µ
SYMBOL cap -64 192 R270
WINDOW 0 32 32 VTop 2
WINDOW 3 0 32 VBottom 2
SYMATTR InstName C2
SYMATTR Value 0.1µ
SYMBOL ind 128 -32 R270
WINDOW 0 32 56 VTop 2
WINDOW 3 5 56 VBottom 2
SYMATTR InstName L1
SYMATTR Value 1µ
SYMBOL res 480 96 R0
SYMATTR InstName R1
SYMATTR Value 1000000
SYMBOL res 480 176 R0
SYMATTR InstName R2
SYMATTR Value 111k
SYMBOL cap 560 192 R0
SYMATTR InstName C3
SYMATTR Value 10p
SYMBOL res 672 128 R0
SYMATTR InstName R3
SYMATTR Value 1000000
SYMBOL cap 768 112 R0
SYMATTR InstName C4
SYMATTR Value 68µ
SYMBOL res 928 128 R0
SYMATTR InstName R4
SYMATTR Value 2.5
TEXT -424 368 Left 2 !.tran 2m
